New Line.l(r:p1rlv2106-rdt1264lv) Units=km Length=0.0775295 bus1=rdt1264lv.1.2 bus2=p1rlv2106.1.2 switch=n enabled=y phases=2 Linecode=1P_OH_AL_4/0_Zuzara_2

New Line.l(r:p1rlv2107-rdm2111) Units=km Length=0.0824047 bus1=rdm2111.1.2 bus2=p1rlv2107.1.2 switch=n enabled=y phases=2 Linecode=1P_OH_AL_4/0_Zuzara_2

New Line.l(r:rdm2111-rdt1265lv) Units=km Length=0.0179056 bus1=rdt1265lv.1.2 bus2=rdm2111.1.2 switch=n enabled=y phases=2 Linecode=1P_OH_AL_2/0_Rucina_2

New Line.l(r:p1rlv2108-rdm2112) Units=km Length=0.084331 bus1=rdm2112.1.2 bus2=p1rlv2108.1.2 switch=n enabled=y phases=2 Linecode=1P_OH_AL_4/0_Zuzara_2

New Line.l(r:rdm2112-rdt1265lv) Units=km Length=0.0179056 bus1=rdt1265lv.1.2 bus2=rdm2112.1.2 switch=n enabled=y phases=2 Linecode=1P_OH_AL_2/0_Rucina_2

New Line.l(r:p1rlv2109-rdm2113) Units=km Length=0.0841577 bus1=rdm2113.1.2 bus2=p1rlv2109.1.2 switch=n enabled=y phases=2 Linecode=1P_OH_AL_4/0_Zuzara_2

New Line.l(r:rdm2113-rdt1266lv) Units=km Length=0.0156519 bus1=rdt1266lv.1.2 bus2=rdm2113.1.2 switch=n enabled=y phases=2 Linecode=1P_OH_AL_2/0_Rucina_2

New Line.l(r:p1rlv2110-rdm2114) Units=km Length=0.0755836 bus1=rdm2114.1.2 bus2=p1rlv2110.1.2 switch=n enabled=y phases=2 Linecode=1P_OH_AL_4/0_Zuzara_2

New Line.l(r:rdm2114-rdt1266lv) Units=km Length=0.0160231 bus1=rdt1266lv.1.2 bus2=rdm2114.1.2 switch=n enabled=y phases=2 Linecode=1P_OH_AL_2/0_Rucina_2

New Line.l(r:p1rlv2111-rdm2115) Units=km Length=0.035808 bus1=rdm2115.1.2 bus2=p1rlv2111.1.2 switch=n enabled=y phases=2 Linecode=1P_OH_AL_4/0_Zuzara_2

New Line.l(r:rdm2115-rdt1267lv) Units=km Length=0.0183867 bus1=rdt1267lv.1.2 bus2=rdm2115.1.2 switch=n enabled=y phases=2 Linecode=1P_OH_AL_2/0_Rucina_2

New Line.l(r:p1rlv2112-rdm2116) Units=km Length=0.0403217 bus1=rdm2116.1.2 bus2=p1rlv2112.1.2 switch=n enabled=y phases=2 Linecode=1P_OH_AL_4/0_Zuzara_2

New Line.l(r:rdm2116-rdt1267lv) Units=km Length=0.0183937 bus1=rdt1267lv.1.2 bus2=rdm2116.1.2 switch=n enabled=y phases=2 Linecode=1P_OH_AL_2/0_Rucina_2

New Line.l(r:p1rlv2114-rdt1268lv) Units=km Length=0.0797017 bus1=rdt1268lv.1.2 bus2=p1rlv2114.1.2 switch=n enabled=y phases=2 Linecode=1P_OH_AL_4/0_Zuzara_2

New Line.l(r:p1rlv2113-rdm2117) Units=km Length=0.0691835 bus1=rdm2117.1.2 bus2=p1rlv2113.1.2 switch=n enabled=y phases=2 Linecode=1P_OH_AL_4/0_Zuzara_2

New Line.l(r:rdm2117-rdt1268lv) Units=km Length=0.0183937 bus1=rdt1268lv.1.2 bus2=rdm2117.1.2 switch=n enabled=y phases=2 Linecode=1P_OH_AL_2/0_Rucina_2

New Line.l(r:p1rlv2115-rdm2119) Units=km Length=0.0755187 bus1=rdm2119.1.2 bus2=p1rlv2115.1.2 switch=n enabled=y phases=2 Linecode=1P_OH_AL_4/0_Zuzara_2

New Line.l(r:p1rlv2116-rdm2119) Units=km Length=0.16124 bus1=rdm2119.1.2 bus2=p1rlv2116.1.2 switch=n enabled=y phases=2 Linecode=1P_OH_AL_4/0_Zuzara_2

New Line.l(r:rdm2119-rdt1269lv) Units=km Length=0.0183937 bus1=rdt1269lv.1.2 bus2=rdm2119.1.2 switch=n enabled=y phases=2 Linecode=1P_OH_AL_2/0_Rucina_2

New Line.l(r:p1rlv2118-rdm2121) Units=km Length=0.0483695 bus1=rdm2121.1.2 bus2=p1rlv2118.1.2 switch=n enabled=y phases=2 Linecode=1P_OH_AL_4/0_Zuzara_2

New Line.l(r:rdm2121-rdt1269lv) Units=km Length=0.018384 bus1=rdt1269lv.1.2 bus2=rdm2121.1.2 switch=n enabled=y phases=2 Linecode=1P_OH_AL_2/0_Rucina_2

New Line.l(r:p1rlv2117-rdt1270lv) Units=km Length=0.001 bus1=rdt1270lv.1.2 bus2=p1rlv2117.1.2 switch=n enabled=y phases=2 Linecode=1P_OH_AL_4_Periwinkle_2

New Line.l(r:p1rlv2119-rdt1271lv) Units=km Length=0.0525335 bus1=rdt1271lv.1.2 bus2=p1rlv2119.1.2 switch=n enabled=y phases=2 Linecode=1P_OH_AL_4/0_Zuzara_2

New Line.l(r:p1rlv2120-rdt1272lv) Units=km Length=0.0310452 bus1=rdt1272lv.1.2 bus2=p1rlv2120.1.2 switch=n enabled=y phases=2 Linecode=1P_OH_AL_4/0_Zuzara_2

New Line.l(r:p1rlv2121-rdt1273lv) Units=km Length=0.0707784 bus1=rdt1273lv.1.2 bus2=p1rlv2121.1.2 switch=n enabled=y phases=2 Linecode=1P_OH_AL_4/0_Zuzara_2

New Line.l(r:p1rlv2122-rdt1274lv) Units=km Length=0.039015 bus1=rdt1274lv.1.2 bus2=p1rlv2122.1.2 switch=n enabled=y phases=2 Linecode=1P_OH_AL_4/0_Zuzara_2

New Line.l(r:p1rlv2123-rdt1275lv) Units=km Length=0.0382384 bus1=rdt1275lv.1.2 bus2=p1rlv2123.1.2 switch=n enabled=y phases=2 Linecode=1P_OH_AL_4/0_Zuzara_2

New Line.l(r:p1rlv2124-rdt1276lv) Units=km Length=0.001 bus1=rdt1276lv.1.2 bus2=p1rlv2124.1.2 switch=n enabled=y phases=2 Linecode=1P_OH_AL_4_Periwinkle_2

New Line.l(r:p1rlv2125-rdt1277lv) Units=km Length=0.001 bus1=rdt1277lv.1.2 bus2=p1rlv2125.1.2 switch=n enabled=y phases=2 Linecode=1P_OH_AL_4_Periwinkle_2

New Line.l(r:p1rlv2126-rdt1278lv) Units=km Length=0.07446690000000002 bus1=rdt1278lv.1.2 bus2=p1rlv2126.1.2 switch=n enabled=y phases=2 Linecode=1P_UG_AL_1/0_Brenau_2

New Line.l(r:p1rlv2127-rdt1278lv) Units=km Length=0.04286920000000001 bus1=rdt1278lv.1.2 bus2=p1rlv2127.1.2 switch=n enabled=y phases=2 Linecode=1P_UG_AL_1/0_Brenau_2

New Line.l(r:p1rlv2128-rdt1279lv) Units=km Length=0.0438774 bus1=rdt1279lv.1.2 bus2=p1rlv2128.1.2 switch=n enabled=y phases=2 Linecode=1P_UG_AL_1/0_Brenau_2

New Line.l(r:p1rlv2129-rdt1280lv) Units=km Length=0.0669445 bus1=rdt1280lv.1.2 bus2=p1rlv2129.1.2 switch=n enabled=y phases=2 Linecode=1P_OH_AL_4/0_Zuzara_2

New Line.l(r:p1rlv2130-rdt1281lv) Units=km Length=0.0406387 bus1=rdt1281lv.1.2 bus2=p1rlv2130.1.2 switch=n enabled=y phases=2 Linecode=1P_OH_AL_4/0_Zuzara_2

New Line.l(r:p1rlv2131-rdt1282lv) Units=km Length=0.0496467 bus1=rdt1282lv.1.2 bus2=p1rlv2131.1.2 switch=n enabled=y phases=2 Linecode=1P_OH_AL_4/0_Zuzara_2

New Line.l(r:p1rlv2132-rdt1283lv) Units=km Length=0.0727102 bus1=rdt1283lv.1.2 bus2=p1rlv2132.1.2 switch=n enabled=y phases=2 Linecode=1P_OH_AL_4/0_Zuzara_2

New Line.l(r:p1rlv2133-rdt1284lv) Units=km Length=0.0642866 bus1=rdt1284lv.1.2 bus2=p1rlv2133.1.2 switch=n enabled=y phases=2 Linecode=1P_UG_AL_1/0_Brenau_2

New Line.l(r:p1rlv2134-rdt1285lv) Units=km Length=0.0499511 bus1=rdt1285lv.1.2 bus2=p1rlv2134.1.2 switch=n enabled=y phases=2 Linecode=1P_OH_AL_4/0_Zuzara_2

New Line.l(r:p1rlv2135-rdt1286lv) Units=km Length=0.0596104 bus1=rdt1286lv.1.2 bus2=p1rlv2135.1.2 switch=n enabled=y phases=2 Linecode=1P_OH_AL_4/0_Zuzara_2

New Line.l(r:p1rlv2136-rdt1287lv) Units=km Length=0.0302187 bus1=rdt1287lv.1.2 bus2=p1rlv2136.1.2 switch=n enabled=y phases=2 Linecode=1P_UG_AL_1/0_Brenau_2

New Line.l(r:p1rlv2137-rdm2141) Units=km Length=0.0342215 bus1=rdm2141.1.2 bus2=p1rlv2137.1.2 switch=n enabled=y phases=2 Linecode=1P_UG_AL_2/0_Converse_2

New Line.l(r:rdm2141-rdt1288lv) Units=km Length=0.0347685 bus1=rdt1288lv.1.2 bus2=rdm2141.1.2 switch=n enabled=y phases=2 Linecode=1P_UG_AL_2/0_Converse_2

New Line.l(r:p1rlv2138-rdm2142) Units=km Length=0.0382562 bus1=rdm2142.1.2 bus2=p1rlv2138.1.2 switch=n enabled=y phases=2 Linecode=1P_UG_AL_1/0_Brenau_2

New Line.l(r:rdm2142-rdt1288lv) Units=km Length=0.0293781 bus1=rdt1288lv.1.2 bus2=rdm2142.1.2 switch=n enabled=y phases=2 Linecode=1P_UG_AL_1/0_Brenau_2

New Line.l(r:p1rlv2139-rdt1289lv) Units=km Length=0.0432151 bus1=rdt1289lv.1.2 bus2=p1rlv2139.1.2 switch=n enabled=y phases=2 Linecode=1P_UG_AL_1/0_Brenau_2

New Line.l(r:p1rlv2140-rdm2144) Units=km Length=0.021570100000000002 bus1=rdm2144.1.2 bus2=p1rlv2140.1.2 switch=n enabled=y phases=2 Linecode=1P_UG_AL_1/0_Brenau_2

New Line.l(r:rdm2144-rdt1289lv) Units=km Length=0.0441469 bus1=rdt1289lv.1.2 bus2=rdm2144.1.2 switch=n enabled=y phases=2 Linecode=1P_UG_AL_1/0_Brenau_2

New Line.l(r:p1rlv2181-rdm2145) Units=km Length=0.029027300000000002 bus1=rdm2145.1.2 bus2=p1rlv2181.1.2 switch=n enabled=y phases=2 Linecode=1P_UG_AL_1/0_Brenau_2

New Line.l(r:rdm2145-rdt1289lv) Units=km Length=0.041414 bus1=rdt1289lv.1.2 bus2=rdm2145.1.2 switch=n enabled=y phases=2 Linecode=1P_UG_AL_1/0_Brenau_2

New Line.l(r:p1rlv2142-rdm2147) Units=km Length=0.0365904 bus1=rdm2147.1.2 bus2=p1rlv2142.1.2 switch=n enabled=y phases=2 Linecode=1P_UG_AL_1/0_Brenau_2

New Line.l(r:p1rlv2141-rdm2146) Units=km Length=0.0373809 bus1=rdm2146.1.2 bus2=p1rlv2141.1.2 switch=n enabled=y phases=2 Linecode=1P_UG_AL_1/0_Brenau_2

New Line.l(r:rdm2146-rdm2147) Units=km Length=0.00889306 bus1=rdm2147.1.2 bus2=rdm2146.1.2 switch=n enabled=y phases=2 Linecode=1P_UG_AL_1/0_Brenau_2

New Line.l(r:rdm2147-rdt1290lv) Units=km Length=0.00889007 bus1=rdt1290lv.1.2 bus2=rdm2147.1.2 switch=n enabled=y phases=2 Linecode=1P_UG_AL_2/0_Converse_2

New Line.l(r:p1rlv2143-rdm2148) Units=km Length=0.0324602 bus1=rdm2148.1.2 bus2=p1rlv2143.1.2 switch=n enabled=y phases=2 Linecode=1P_UG_AL_1/0_Brenau_2

New Line.l(r:rdm2148-rdt1290lv) Units=km Length=0.0266648 bus1=rdt1290lv.1.2 bus2=rdm2148.1.2 switch=n enabled=y phases=2 Linecode=1P_UG_AL_1/0_Brenau_2

New Line.l(r:p1rlv2146-rdt1291lv) Units=km Length=0.0323736 bus1=rdt1291lv.1.2 bus2=p1rlv2146.1.2 switch=n enabled=y phases=2 Linecode=1P_UG_AL_1/0_Brenau_2

New Line.l(r:p1rlv2144-rdm2149) Units=km Length=0.03279 bus1=rdm2149.1.2 bus2=p1rlv2144.1.2 switch=n enabled=y phases=2 Linecode=1P_UG_AL_4/0_Sweetbriar_2

New Line.l(r:rdm2149-rdt1291lv) Units=km Length=0.00889007 bus1=rdt1291lv.1.2 bus2=rdm2149.1.2 switch=n enabled=y phases=2 Linecode=1P_UG_AL_4/0_Sweetbriar_2

New Line.l(r:p1rlv2147-rdm2151) Units=km Length=0.0318322 bus1=rdm2151.1.2 bus2=p1rlv2147.1.2 switch=n enabled=y phases=2 Linecode=1P_UG_AL_1/0_Brenau_2

New Line.l(r:rdm2151-rdt1291lv) Units=km Length=0.00889847 bus1=rdt1291lv.1.2 bus2=rdm2151.1.2 switch=n enabled=y phases=2 Linecode=1P_UG_AL_1/0_Brenau_2

New Line.l(r:p1rlv2149-rdm2153) Units=km Length=0.0314408 bus1=rdm2153.1.2 bus2=p1rlv2149.1.2 switch=n enabled=y phases=2 Linecode=1P_UG_AL_1/0_Brenau_2

New Line.l(r:p1rlv2151-rdm2153) Units=km Length=0.030782 bus1=rdm2153.1.2 bus2=p1rlv2151.1.2 switch=n enabled=y phases=2 Linecode=1P_UG_AL_1/0_Brenau_2

New Line.l(r:p1rlv2148-rdm2152) Units=km Length=0.03377030000000001 bus1=rdm2152.1.2 bus2=p1rlv2148.1.2 switch=n enabled=y phases=2 Linecode=1P_UG_AL_1/0_Brenau_2

New Line.l(r:rdm2152-rdm2153) Units=km Length=0.0244444 bus1=rdm2153.1.2 bus2=rdm2152.1.2 switch=n enabled=y phases=2 Linecode=1P_UG_AL_1/0_Brenau_2

New Line.l(r:rdm2153-rdt1292lv) Units=km Length=0.00846399 bus1=rdt1292lv.1.2 bus2=rdm2153.1.2 switch=n enabled=y phases=2 Linecode=1P_UG_AL_4/0_Sweetbriar_2

New Line.l(r:p1rlv2152-rdm2155) Units=km Length=0.0293985 bus1=rdm2155.1.2 bus2=p1rlv2152.1.2 switch=n enabled=y phases=2 Linecode=1P_UG_AL_4/0_Sweetbriar_2

New Line.l(r:rdm2155-rdt1292lv) Units=km Length=0.0453269 bus1=rdt1292lv.1.2 bus2=rdm2155.1.2 switch=n enabled=y phases=2 Linecode=1P_UG_AL_4/0_Sweetbriar_2

New Line.l(r:p1rlv2155-rdm2157) Units=km Length=0.0323898 bus1=rdm2157.1.2 bus2=p1rlv2155.1.2 switch=n enabled=y phases=2 Linecode=1P_UG_AL_4/0_Sweetbriar_2

New Line.l(r:rdm2157-rdt1294lv) Units=km Length=0.016301 bus1=rdt1294lv.1.2 bus2=rdm2157.1.2 switch=n enabled=y phases=2 Linecode=1P_UG_AL_4/0_Sweetbriar_2

New Line.l(r:p1rlv2162-rdm2158) Units=km Length=0.0217705 bus1=rdm2158.1.2 bus2=p1rlv2162.1.2 switch=n enabled=y phases=2 Linecode=1P_UG_AL_4/0_Sweetbriar_2

New Line.l(r:rdm2158-rdt1294lv) Units=km Length=0.0216425 bus1=rdt1294lv.1.2 bus2=rdm2158.1.2 switch=n enabled=y phases=2 Linecode=1P_UG_AL_4/0_Sweetbriar_2

New Line.l(r:p1rlv2157-rdm2160) Units=km Length=0.0422415 bus1=rdm2160.1.2 bus2=p1rlv2157.1.2 switch=n enabled=y phases=2 Linecode=1P_UG_AL_1/0_Brenau_2

New Line.l(r:rdm2160-rdt1296lv) Units=km Length=0.015282800000000001 bus1=rdt1296lv.1.2 bus2=rdm2160.1.2 switch=n enabled=y phases=2 Linecode=1P_UG_AL_1/0_Brenau_2

New Line.l(r:p1rlv2159-rdm2161) Units=km Length=0.0390225 bus1=rdm2161.1.2 bus2=p1rlv2159.1.2 switch=n enabled=y phases=2 Linecode=1P_UG_AL_1/0_Brenau_2

New Line.l(r:rdm2161-rdt1296lv) Units=km Length=0.021349300000000005 bus1=rdt1296lv.1.2 bus2=rdm2161.1.2 switch=n enabled=y phases=2 Linecode=1P_UG_AL_1/0_Brenau_2

New Line.l(r:p1rlv2165-rdm2167) Units=km Length=0.0708498 bus1=rdm2167.1.2 bus2=p1rlv2165.1.2 switch=n enabled=y phases=2 Linecode=1P_UG_AL_1/0_Brenau_2

New Line.l(r:p1rlv2164-rdm2166) Units=km Length=0.0645604 bus1=rdm2166.1.2 bus2=p1rlv2164.1.2 switch=n enabled=y phases=2 Linecode=1P_UG_AL_1/0_Brenau_2

New Line.l(r:rdm2166-rdm2167) Units=km Length=0.00846399 bus1=rdm2167.1.2 bus2=rdm2166.1.2 switch=n enabled=y phases=2 Linecode=1P_UG_AL_1/0_Brenau_2

New Line.l(r:rdm2167-rdt1301lv) Units=km Length=0.00814371 bus1=rdt1301lv.1.2 bus2=rdm2167.1.2 switch=n enabled=y phases=2 Linecode=1P_UG_AL_1/0_Brenau_2

New Line.l(r:p1rlv2166-rdm2168) Units=km Length=0.0525353 bus1=rdm2168.1.2 bus2=p1rlv2166.1.2 switch=n enabled=y phases=2 Linecode=1P_UG_AL_4/0_Sweetbriar_2

New Line.l(r:rdm2168-rdt1301lv) Units=km Length=0.00815697 bus1=rdt1301lv.1.2 bus2=rdm2168.1.2 switch=n enabled=y phases=2 Linecode=1P_UG_AL_4/0_Sweetbriar_2

New Line.l(r:p1rlv2168-rdt1302lv) Units=km Length=0.05111 bus1=rdt1302lv.1.2 bus2=p1rlv2168.1.2 switch=n enabled=y phases=2 Linecode=1P_OH_AL_4/0_Zuzara_2

New Line.l(r:p1rlv2167-rdm2169) Units=km Length=0.0313601 bus1=rdm2169.1.2 bus2=p1rlv2167.1.2 switch=n enabled=y phases=2 Linecode=1P_OH_AL_4/0_Zuzara_2

New Line.l(r:rdm2169-rdt1302lv) Units=km Length=0.0171058 bus1=rdt1302lv.1.2 bus2=rdm2169.1.2 switch=n enabled=y phases=2 Linecode=1P_OH_AL_2/0_Rucina_2

New Line.l(r:p1rlv2169-rdm2171) Units=km Length=0.0408041 bus1=rdm2171.1.2 bus2=p1rlv2169.1.2 switch=n enabled=y phases=2 Linecode=1P_OH_AL_4/0_Zuzara_2

New Line.l(r:p1rlv2171-rdm2171) Units=km Length=0.0295883 bus1=rdm2171.1.2 bus2=p1rlv2171.1.2 switch=n enabled=y phases=2 Linecode=1P_OH_AL_4/0_Zuzara_2

New Line.l(r:rdm2171-rdt1302lv) Units=km Length=0.0170972 bus1=rdt1302lv.1.2 bus2=rdm2171.1.2 switch=n enabled=y phases=2 Linecode=1P_OH_AL_2/0_Rucina_2

New Line.l(r:p1rlv2170-rdt1303lv) Units=km Length=0.0411246 bus1=rdt1303lv.1.2 bus2=p1rlv2170.1.2 switch=n enabled=y phases=2 Linecode=1P_UG_AL_4/0_Sweetbriar_2

New Line.l(r:p1rlv2186-rdt1304lv) Units=km Length=0.0285709 bus1=rdt1304lv.1.2 bus2=p1rlv2186.1.2 switch=n enabled=y phases=2 Linecode=1P_UG_AL_1/0_Brenau_2

New Line.l(r:p1rlv2172-rdm2174) Units=km Length=0.0265217 bus1=rdm2174.1.2 bus2=p1rlv2172.1.2 switch=n enabled=y phases=2 Linecode=1P_OH_AL_2/0_Rucina_2

New Line.l(r:rdm2174-rdt1304lv) Units=km Length=0.0513089 bus1=rdt1304lv.1.2 bus2=rdm2174.1.2 switch=n enabled=y phases=2 Linecode=1P_OH_AL_4/0_Zuzara_2

New Line.l(r:p1rlv2185-rdm2175) Units=km Length=0.030941600000000003 bus1=rdm2175.1.2 bus2=p1rlv2185.1.2 switch=n enabled=y phases=2 Linecode=1P_UG_AL_1/0_Brenau_2

New Line.l(r:rdm2175-rdt1304lv) Units=km Length=0.0263934 bus1=rdt1304lv.1.2 bus2=rdm2175.1.2 switch=n enabled=y phases=2 Linecode=1P_UG_AL_1/0_Brenau_2

New Line.l(r:p1rlv2174-rdm2177) Units=km Length=0.0210751 bus1=rdm2177.1.2 bus2=p1rlv2174.1.2 switch=n enabled=y phases=2 Linecode=1P_UG_AL_1/0_Brenau_2

New Line.l(r:rdm2177-rdt1305lv) Units=km Length=0.0272302 bus1=rdt1305lv.1.2 bus2=rdm2177.1.2 switch=n enabled=y phases=2 Linecode=1P_UG_AL_1/0_Brenau_2

New Line.l(r:p1rlv2175-rdm2178) Units=km Length=0.0347922 bus1=rdm2178.1.2 bus2=p1rlv2175.1.2 switch=n enabled=y phases=2 Linecode=1P_UG_AL_1/0_Brenau_2

New Line.l(r:rdm2178-rdt1305lv) Units=km Length=0.0188395 bus1=rdt1305lv.1.2 bus2=rdm2178.1.2 switch=n enabled=y phases=2 Linecode=1P_UG_AL_1/0_Brenau_2

New Line.l(r:p1rlv2177-rdt1306lv) Units=km Length=0.0296097 bus1=rdt1306lv.1.2 bus2=p1rlv2177.1.2 switch=n enabled=y phases=2 Linecode=1P_UG_AL_1/0_Brenau_2

New Line.l(r:p1rlv2178-rdt1307lv) Units=km Length=0.0315116 bus1=rdt1307lv.1.2 bus2=p1rlv2178.1.2 switch=n enabled=y phases=2 Linecode=1P_UG_AL_1/0_Brenau_2

New Line.l(r:p1rlv2179-rdt1307lv) Units=km Length=0.0301107 bus1=rdt1307lv.1.2 bus2=p1rlv2179.1.2 switch=n enabled=y phases=2 Linecode=1P_UG_AL_1/0_Brenau_2

New Line.l(r:p1rlv2180-rdt1308lv) Units=km Length=0.0259398 bus1=rdt1308lv.1.2 bus2=p1rlv2180.1.2 switch=n enabled=y phases=2 Linecode=1P_UG_AL_1/0_Brenau_2

New Line.l(r:p1rlv2182-rdt1309lv) Units=km Length=0.0489704 bus1=rdt1309lv.1.2 bus2=p1rlv2182.1.2 switch=n enabled=y phases=2 Linecode=1P_UG_AL_1/0_Brenau_2

New Line.l(r:p1rlv2183-rdt1310lv) Units=km Length=0.0291763 bus1=rdt1310lv.1.2 bus2=p1rlv2183.1.2 switch=n enabled=y phases=2 Linecode=1P_UG_AL_2/0_Converse_2

New Line.l(r:p1rlv2187-rdt1311lv) Units=km Length=0.0381201 bus1=rdt1311lv.1.2 bus2=p1rlv2187.1.2 switch=n enabled=y phases=2 Linecode=1P_OH_AL_4/0_Zuzara_2

New Line.l(r:p1rlv2189-rdt1313lv) Units=km Length=0.001 bus1=rdt1313lv.1.2 bus2=p1rlv2189.1.2 switch=n enabled=y phases=2 Linecode=1P_OH_AL_4_Periwinkle_2

New Line.l(r:p1rlv2190-rdt1314lv) Units=km Length=0.0584028 bus1=rdt1314lv.1.2 bus2=p1rlv2190.1.2 switch=n enabled=y phases=2 Linecode=1P_OH_AL_4/0_Zuzara_2

New Line.l(r:p1rlv2191-rdt1314lv) Units=km Length=0.0615208 bus1=rdt1314lv.1.2 bus2=p1rlv2191.1.2 switch=n enabled=y phases=2 Linecode=1P_OH_AL_4/0_Zuzara_2

New Line.l(r:p1rlv2192-rdt1314lv) Units=km Length=0.07041650000000002 bus1=rdt1314lv.1.2 bus2=p1rlv2192.1.2 switch=n enabled=y phases=2 Linecode=1P_OH_AL_4/0_Zuzara_2

New Line.l(r:p1rlv2193-rdt1315lv) Units=km Length=0.0499832 bus1=rdt1315lv.1.2 bus2=p1rlv2193.1.2 switch=n enabled=y phases=2 Linecode=1P_OH_AL_4/0_Zuzara_2

New Line.l(r:p1rlv2194-rdt1315lv) Units=km Length=0.0458515 bus1=rdt1315lv.1.2 bus2=p1rlv2194.1.2 switch=n enabled=y phases=2 Linecode=1P_OH_AL_4/0_Zuzara_2

New Line.l(r:p1rlv2197-rdt1318lv) Units=km Length=0.001 bus1=rdt1318lv.1.2 bus2=p1rlv2197.1.2 switch=n enabled=y phases=2 Linecode=1P_OH_AL_4_Periwinkle_2

New Line.l(r:p1rlv2198-rdt1319lv) Units=km Length=0.0761708 bus1=rdt1319lv.1.2 bus2=p1rlv2198.1.2 switch=n enabled=y phases=2 Linecode=1P_OH_AL_4/0_Zuzara_2

New Line.l(r:p1rlv2200-rdt1321lv) Units=km Length=0.0401745 bus1=rdt1321lv.1.2 bus2=p1rlv2200.1.2 switch=n enabled=y phases=2 Linecode=1P_OH_AL_4/0_Zuzara_2

New Line.l(r:p1rlv2201-rdt1322lv) Units=km Length=0.0277265 bus1=rdt1322lv.1.2 bus2=p1rlv2201.1.2 switch=n enabled=y phases=2 Linecode=1P_UG_AL_1/0_Brenau_2

New Line.l(r:p1rlv2205-rdt1324lv) Units=km Length=0.027895 bus1=rdt1324lv.1.2 bus2=p1rlv2205.1.2 switch=n enabled=y phases=2 Linecode=1P_OH_AL_4/0_Zuzara_2

New Line.l(r:p1rlv2203-rdm2201) Units=km Length=0.0279716 bus1=rdm2201.1.2 bus2=p1rlv2203.1.2 switch=n enabled=y phases=2 Linecode=1P_OH_AL_4/0_Zuzara_2

New Line.l(r:rdm2201-rdt1324lv) Units=km Length=0.01398 bus1=rdt1324lv.1.2 bus2=rdm2201.1.2 switch=n enabled=y phases=2 Linecode=1P_OH_AL_2/0_Rucina_2

New Line.l(r:p1rlv2206-rdt1326lv) Units=km Length=0.0196049 bus1=rdt1326lv.1.2 bus2=p1rlv2206.1.2 switch=n enabled=y phases=2 Linecode=1P_OH_AL_2/0_Rucina_2

New Line.l(r:p1rlv2207-rdt1327lv) Units=km Length=0.0887659 bus1=rdt1327lv.1.2 bus2=p1rlv2207.1.2 switch=n enabled=y phases=2 Linecode=1P_OH_AL_4/0_Zuzara_2

New Line.l(r:p1rlv2208-rdt1328lv) Units=km Length=0.0246879 bus1=rdt1328lv.1.2 bus2=p1rlv2208.1.2 switch=n enabled=y phases=2 Linecode=1P_UG_AL_2/0_Converse_2

New Line.l(r:p1rlv2209-rdt1329lv) Units=km Length=0.028771500000000002 bus1=rdt1329lv.1.2 bus2=p1rlv2209.1.2 switch=n enabled=y phases=2 Linecode=1P_OH_AL_4/0_Zuzara_2

New Line.l(r:p1rlv2214-rdt1334lv) Units=km Length=0.001 bus1=rdt1334lv.1.2 bus2=p1rlv2214.1.2 switch=n enabled=y phases=2 Linecode=1P_OH_AL_4_Periwinkle_2

New Line.l(r:p1rlv2217-rdt1337lv) Units=km Length=0.0721583 bus1=rdt1337lv.1.2 bus2=p1rlv2217.1.2 switch=n enabled=y phases=2 Linecode=1P_OH_AL_4/0_Zuzara_2

New Line.l(r:p1rlv2218-rdt1338lv) Units=km Length=0.0820813 bus1=rdt1338lv.1.2 bus2=p1rlv2218.1.2 switch=n enabled=y phases=2 Linecode=1P_OH_AL_4/0_Zuzara_2

New Line.l(r:p1rlv2219-rdt1339lv) Units=km Length=0.001 bus1=rdt1339lv.1.2 bus2=p1rlv2219.1.2 switch=n enabled=y phases=2 Linecode=1P_OH_AL_4_Periwinkle_2

New Line.l(r:p1rlv2221-rdt1341lv) Units=km Length=0.05039180000000001 bus1=rdt1341lv.1.2 bus2=p1rlv2221.1.2 switch=n enabled=y phases=2 Linecode=1P_OH_AL_4/0_Zuzara_2

New Line.l(r:p1rlv2222-rdt1341lv) Units=km Length=0.0120122 bus1=rdt1341lv.1.2 bus2=p1rlv2222.1.2 switch=n enabled=y phases=2 Linecode=1P_OH_AL_2/0_Rucina_2

New Line.l(r:p1rlv2223-rdt1341lv) Units=km Length=0.0383806 bus1=rdt1341lv.1.2 bus2=p1rlv2223.1.2 switch=n enabled=y phases=2 Linecode=1P_OH_AL_4/0_Zuzara_2

New Line.l(r:p1rlv2226-rdt1343lv) Units=km Length=0.0726076 bus1=rdt1343lv.1.2 bus2=p1rlv2226.1.2 switch=n enabled=y phases=2 Linecode=1P_OH_AL_4/0_Zuzara_2

New Line.l(r:p1rlv2227-rdt1344lv) Units=km Length=0.0165421 bus1=rdt1344lv.1.2 bus2=p1rlv2227.1.2 switch=n enabled=y phases=2 Linecode=1P_OH_AL_2/0_Rucina_2

New Line.l(r:p1rlv2228-rdt1344lv) Units=km Length=0.0165421 bus1=rdt1344lv.1.2 bus2=p1rlv2228.1.2 switch=n enabled=y phases=2 Linecode=1P_OH_AL_2/0_Rucina_2

New Line.l(r:p1rlv2229-rdt1345lv) Units=km Length=0.0298907 bus1=rdt1345lv.1.2 bus2=p1rlv2229.1.2 switch=n enabled=y phases=2 Linecode=1P_OH_AL_4/0_Zuzara_2

New Line.l(r:p1rlv2230-rdt1346lv) Units=km Length=0.001 bus1=rdt1346lv.1.2 bus2=p1rlv2230.1.2 switch=n enabled=y phases=2 Linecode=1P_OH_AL_4_Periwinkle_2

New Line.l(r:p1rlv2231-rdt1347lv) Units=km Length=0.0340914 bus1=rdt1347lv.1.2 bus2=p1rlv2231.1.2 switch=n enabled=y phases=2 Linecode=1P_OH_AL_4/0_Zuzara_2

New Line.l(r:p1rlv2232-rdt1348lv) Units=km Length=0.0387809 bus1=rdt1348lv.1.2 bus2=p1rlv2232.1.2 switch=n enabled=y phases=2 Linecode=1P_OH_AL_4/0_Zuzara_2

New Line.l(r:p1rlv2234-rdt1348lv) Units=km Length=0.0717398 bus1=rdt1348lv.1.2 bus2=p1rlv2234.1.2 switch=n enabled=y phases=2 Linecode=1P_OH_AL_4/0_Zuzara_2

New Line.l(r:p1rlv2235-rdt1348lv) Units=km Length=0.070984 bus1=rdt1348lv.1.2 bus2=p1rlv2235.1.2 switch=n enabled=y phases=2 Linecode=1P_OH_AL_4/0_Zuzara_2

New Line.l(r:p1rlv2236-rdm2232) Units=km Length=0.0687479 bus1=rdm2232.1.2 bus2=p1rlv2236.1.2 switch=n enabled=y phases=2 Linecode=1P_OH_AL_4/0_Zuzara_2

New Line.l(r:rdm2232-rdt1348lv) Units=km Length=0.0156909 bus1=rdt1348lv.1.2 bus2=rdm2232.1.2 switch=n enabled=y phases=2 Linecode=1P_OH_AL_2/0_Rucina_2

New Line.l(r:p1rlv2237-rdm2233) Units=km Length=0.0464543 bus1=rdm2233.1.2 bus2=p1rlv2237.1.2 switch=n enabled=y phases=2 Linecode=1P_OH_AL_4/0_Zuzara_2

New Line.l(r:rdm2233-rdt1349lv) Units=km Length=0.0353421 bus1=rdt1349lv.1.2 bus2=rdm2233.1.2 switch=n enabled=y phases=2 Linecode=1P_OH_AL_4/0_Zuzara_2

New Line.l(r:p1rlv2238-rdm2234) Units=km Length=0.1386 bus1=rdm2234.1.2 bus2=p1rlv2238.1.2 switch=n enabled=y phases=2 Linecode=1P_OH_AL_4/0_Zuzara_2

New Line.l(r:rdm2234-rdt1349lv) Units=km Length=0.0176705 bus1=rdt1349lv.1.2 bus2=rdm2234.1.2 switch=n enabled=y phases=2 Linecode=1P_OH_AL_2/0_Rucina_2

New Line.l(r:p1rlv2239-rdt1350lv) Units=km Length=0.001 bus1=rdt1350lv.1.2 bus2=p1rlv2239.1.2 switch=n enabled=y phases=2 Linecode=1P_OH_AL_4_Periwinkle_2

New Line.l(r:p1rlv2241-rdt1352lv) Units=km Length=0.0500573 bus1=rdt1352lv.1.2 bus2=p1rlv2241.1.2 switch=n enabled=y phases=2 Linecode=1P_OH_AL_4/0_Zuzara_2

New Line.l(r:p1rlv2242-rdt1352lv) Units=km Length=0.0500573 bus1=rdt1352lv.1.2 bus2=p1rlv2242.1.2 switch=n enabled=y phases=2 Linecode=1P_OH_AL_4/0_Zuzara_2

New Line.l(r:p1rlv2243-rdt1353lv) Units=km Length=0.0225815 bus1=rdt1353lv.1.2 bus2=p1rlv2243.1.2 switch=n enabled=y phases=2 Linecode=1P_OH_AL_2/0_Rucina_2

New Line.l(r:p1rlv2244-rdt1353lv) Units=km Length=0.019381 bus1=rdt1353lv.1.2 bus2=p1rlv2244.1.2 switch=n enabled=y phases=2 Linecode=1P_OH_AL_2/0_Rucina_2

New Line.l(r:p1rlv2245-rdt1353lv) Units=km Length=0.0107594 bus1=rdt1353lv.1.2 bus2=p1rlv2245.1.2 switch=n enabled=y phases=2 Linecode=1P_OH_AL_2/0_Rucina_2

New Line.l(r:p1rlv2246-rdt1353lv) Units=km Length=0.0167587 bus1=rdt1353lv.1.2 bus2=p1rlv2246.1.2 switch=n enabled=y phases=2 Linecode=1P_OH_AL_2/0_Rucina_2

New Line.l(r:p1rlv2247-rdt1353lv) Units=km Length=0.0215983 bus1=rdt1353lv.1.2 bus2=p1rlv2247.1.2 switch=n enabled=y phases=2 Linecode=1P_OH_AL_2/0_Rucina_2

New Line.l(r:p1rlv2248-rdt1354lv) Units=km Length=0.121908 bus1=rdt1354lv.1.2 bus2=p1rlv2248.1.2 switch=n enabled=y phases=2 Linecode=1P_OH_AL_4/0_Zuzara_2

New Line.l(r:p1rlv2249-rdt1354lv) Units=km Length=0.0762011 bus1=rdt1354lv.1.2 bus2=p1rlv2249.1.2 switch=n enabled=y phases=2 Linecode=1P_OH_AL_4/0_Zuzara_2

New Line.l(r:p1rlv2250-rdm2246) Units=km Length=0.0563014 bus1=rdm2246.1.2 bus2=p1rlv2250.1.2 switch=n enabled=y phases=2 Linecode=1P_OH_AL_4/0_Zuzara_2

New Line.l(r:rdm2246-rdt1354lv) Units=km Length=0.0200044 bus1=rdt1354lv.1.2 bus2=rdm2246.1.2 switch=n enabled=y phases=2 Linecode=1P_OH_AL_2/0_Rucina_2

New Line.l(r:p1rlv2251-rdt1355lv) Units=km Length=0.00762685 bus1=rdt1355lv.1.2 bus2=p1rlv2251.1.2 switch=n enabled=y phases=2 Linecode=1P_OH_AL_2/0_Rucina_2

New Line.l(r:p1rlv2252-rdt1355lv) Units=km Length=0.00361893 bus1=rdt1355lv.1.2 bus2=p1rlv2252.1.2 switch=n enabled=y phases=2 Linecode=1P_OH_AL_4_Periwinkle_2

New Line.l(r:p1rlv2253-rdt1355lv) Units=km Length=0.0112414 bus1=rdt1355lv.1.2 bus2=p1rlv2253.1.2 switch=n enabled=y phases=2 Linecode=1P_OH_AL_2/0_Rucina_2

New Line.l(r:p1rlv2254-rdt1356lv) Units=km Length=0.0622193 bus1=rdt1356lv.1.2 bus2=p1rlv2254.1.2 switch=n enabled=y phases=2 Linecode=1P_OH_AL_4/0_Zuzara_2

New Line.l(r:p1rlv2255-rdt1356lv) Units=km Length=0.0622193 bus1=rdt1356lv.1.2 bus2=p1rlv2255.1.2 switch=n enabled=y phases=2 Linecode=1P_OH_AL_4/0_Zuzara_2

New Line.l(r:p1rlv2256-rdt1357lv) Units=km Length=0.142355 bus1=rdt1357lv.1.2 bus2=p1rlv2256.1.2 switch=n enabled=y phases=2 Linecode=1P_OH_AL_4/0_Zuzara_2

New Line.l(r:p1rlv2258-rdt1357lv) Units=km Length=0.0362258 bus1=rdt1357lv.1.2 bus2=p1rlv2258.1.2 switch=n enabled=y phases=2 Linecode=1P_OH_AL_4/0_Zuzara_2

New Line.l(r:p1rlv2257-rdt1358lv) Units=km Length=0.0350297 bus1=rdt1358lv.1.2 bus2=p1rlv2257.1.2 switch=n enabled=y phases=2 Linecode=1P_OH_AL_4/0_Zuzara_2

New Line.l(r:p1rlv2259-rdt1359lv) Units=km Length=0.0365675 bus1=rdt1359lv.1.2 bus2=p1rlv2259.1.2 switch=n enabled=y phases=2 Linecode=1P_OH_AL_4/0_Zuzara_2

New Line.l(r:p1rlv2260-rdm2256) Units=km Length=0.0342413 bus1=rdm2256.1.2 bus2=p1rlv2260.1.2 switch=n enabled=y phases=2 Linecode=1P_OH_AL_4/0_Zuzara_2

New Line.l(r:rdm2256-rdt1359lv) Units=km Length=0.01911 bus1=rdt1359lv.1.2 bus2=rdm2256.1.2 switch=n enabled=y phases=2 Linecode=1P_OH_AL_2/0_Rucina_2

New Line.l(r:p1rlv2261-rdt1360lv) Units=km Length=0.001 bus1=rdt1360lv.1.2 bus2=p1rlv2261.1.2 switch=n enabled=y phases=2 Linecode=1P_OH_AL_4_Periwinkle_2

New Line.l(r:p1rlv2262-rdt1361lv) Units=km Length=0.029893000000000003 bus1=rdt1361lv.1.2 bus2=p1rlv2262.1.2 switch=n enabled=y phases=2 Linecode=1P_OH_AL_4/0_Zuzara_2

New Line.l(r:p1rlv2263-rdt1361lv) Units=km Length=0.00543055 bus1=rdt1361lv.1.2 bus2=p1rlv2263.1.2 switch=n enabled=y phases=2 Linecode=1P_OH_AL_2/0_Rucina_2

New Line.l(r:p1rlv2264-rdt1361lv) Units=km Length=0.034247700000000006 bus1=rdt1361lv.1.2 bus2=p1rlv2264.1.2 switch=n enabled=y phases=2 Linecode=1P_OH_AL_4/0_Zuzara_2

New Line.l(r:p1rlv2265-rdt1362lv) Units=km Length=0.010033 bus1=rdt1362lv.1.2 bus2=p1rlv2265.1.2 switch=n enabled=y phases=2 Linecode=1P_OH_AL_2/0_Rucina_2

New Line.l(r:p1rlv2266-rdt1362lv) Units=km Length=0.010033 bus1=rdt1362lv.1.2 bus2=p1rlv2266.1.2 switch=n enabled=y phases=2 Linecode=1P_OH_AL_2/0_Rucina_2

New Line.l(r:p1rlv2269-rdt1364lv) Units=km Length=0.001 bus1=rdt1364lv.1.2 bus2=p1rlv2269.1.2 switch=n enabled=y phases=2 Linecode=1P_OH_AL_4_Periwinkle_2

New Line.l(r:p1rlv2270-rdt1365lv) Units=km Length=0.04648750000000001 bus1=rdt1365lv.1.2 bus2=p1rlv2270.1.2 switch=n enabled=y phases=2 Linecode=1P_OH_AL_4/0_Zuzara_2

New Line.l(r:p1rlv2271-rdt1365lv) Units=km Length=0.04648750000000001 bus1=rdt1365lv.1.2 bus2=p1rlv2271.1.2 switch=n enabled=y phases=2 Linecode=1P_OH_AL_4/0_Zuzara_2

New Line.l(r:p1rlv2272-rdt1366lv) Units=km Length=0.001 bus1=rdt1366lv.1.2 bus2=p1rlv2272.1.2 switch=n enabled=y phases=2 Linecode=1P_OH_AL_4_Periwinkle_2

New Line.l(r:p1rlv2273-rdt1367lv) Units=km Length=0.0293065 bus1=rdt1367lv.1.2 bus2=p1rlv2273.1.2 switch=n enabled=y phases=2 Linecode=1P_OH_AL_4/0_Zuzara_2

New Line.l(r:p1rlv2274-rdt1367lv) Units=km Length=0.00561523 bus1=rdt1367lv.1.2 bus2=p1rlv2274.1.2 switch=n enabled=y phases=2 Linecode=1P_OH_AL_2/0_Rucina_2

New Line.l(r:p1rlv2275-rdt1367lv) Units=km Length=0.0308093 bus1=rdt1367lv.1.2 bus2=p1rlv2275.1.2 switch=n enabled=y phases=2 Linecode=1P_OH_AL_4/0_Zuzara_2

New Line.l(r:p1rlv2277-rdt1369lv) Units=km Length=0.001 bus1=rdt1369lv.1.2 bus2=p1rlv2277.1.2 switch=n enabled=y phases=2 Linecode=1P_OH_AL_4_Periwinkle_2

New Line.l(r:p1rlv2278-rdt1370lv) Units=km Length=0.0477317 bus1=rdt1370lv.1.2 bus2=p1rlv2278.1.2 switch=n enabled=y phases=2 Linecode=1P_OH_AL_4/0_Zuzara_2

New Line.l(r:p1rlv2279-rdt1370lv) Units=km Length=0.0364636 bus1=rdt1370lv.1.2 bus2=p1rlv2279.1.2 switch=n enabled=y phases=2 Linecode=1P_OH_AL_4/0_Zuzara_2

New Line.l(r:p1rlv2280-rdt1370lv) Units=km Length=0.0305292 bus1=rdt1370lv.1.2 bus2=p1rlv2280.1.2 switch=n enabled=y phases=2 Linecode=1P_OH_AL_4/0_Zuzara_2

New Line.l(r:p1rlv2281-rdm2277) Units=km Length=0.0207058 bus1=rdm2277.1.2 bus2=p1rlv2281.1.2 switch=n enabled=y phases=2 Linecode=1P_OH_AL_2/0_Rucina_2

New Line.l(r:rdm2277-rdt1370lv) Units=km Length=0.101215 bus1=rdt1370lv.1.2 bus2=rdm2277.1.2 switch=n enabled=y phases=2 Linecode=1P_OH_AL_4/0_Zuzara_2

New Line.l(r:p1rlv2282-rdt1371lv) Units=km Length=0.08164270000000001 bus1=rdt1371lv.1.2 bus2=p1rlv2282.1.2 switch=n enabled=y phases=2 Linecode=1P_OH_AL_4/0_Zuzara_2

New Line.l(r:p1rlv2284-rdt1371lv) Units=km Length=0.0440655 bus1=rdt1371lv.1.2 bus2=p1rlv2284.1.2 switch=n enabled=y phases=2 Linecode=1P_OH_AL_4/0_Zuzara_2

New Line.l(r:p1rlv2283-rdt1372lv) Units=km Length=0.073294 bus1=rdt1372lv.1.2 bus2=p1rlv2283.1.2 switch=n enabled=y phases=2 Linecode=1P_OH_AL_4/0_Zuzara_2

New Line.l(r:p1rlv2287-rdt1375lv) Units=km Length=0.009930260000000002 bus1=rdt1375lv.1.2 bus2=p1rlv2287.1.2 switch=n enabled=y phases=2 Linecode=1P_OH_AL_2/0_Rucina_2

New Line.l(r:p1rlv2288-rdt1376lv) Units=km Length=0.001 bus1=rdt1376lv.1.2 bus2=p1rlv2288.1.2 switch=n enabled=y phases=2 Linecode=1P_OH_AL_4_Periwinkle_2
